@<TRIPOS>MOLECULE
ACM.pdb
 4 3 0 0 0
SMALL
GASTEIGER

@<TRIPOS>ATOM
      1  C1        28.0230   16.2080   -6.5300 C.2   301  ACM301      0.2612
      2  O         29.0710   15.7800   -6.0530 O.2   301  ACM301     -0.2716
      3  N         28.0010   17.2630   -7.3600 N.am  301  ACM301     -0.0878
      4  C2        26.7370   15.4750   -6.2840 C.3   301  ACM301      0.0982
@<TRIPOS>BOND
     1     3     1   am
     2     1     4    1
     3     1     2    2
