@<TRIPOS>MOLECULE
BNZ.pdb
 6 6 0 0 0
SMALL
GASTEIGER

@<TRIPOS>ATOM
      1  C1         4.0520    8.5640    0.2300 C.ar  202  BNZ202      0.0000
      2  C2         4.5410    9.7730    0.7260 C.ar  202  BNZ202      0.0000
      3  C3         3.7690   10.6100    1.5330 C.ar  202  BNZ202      0.0000
      4  C4         2.4620   10.1550    1.8410 C.ar  202  BNZ202      0.0000
      5  C5         1.9800    8.9430    1.3640 C.ar  202  BNZ202      0.0000
      6  C6         2.7750    8.1380    0.5630 C.ar  202  BNZ202      0.0000
@<TRIPOS>BOND
     1     1     6   ar
     2     1     2   ar
     3     6     5   ar
     4     2     3   ar
     5     5     4   ar
     6     3     4   ar
