@<TRIPOS>MOLECULE
HBX.pdb
 8 8 0 0 0
SMALL
GASTEIGER

@<TRIPOS>ATOM
      1  C1'       17.9410   30.6370   31.8230 C.2   200  HBX200      0.2342
      2  O1'       17.3100   31.1060   30.8870 O.2   200  HBX200     -0.2831
      3  C1        19.3740   30.9660   31.9300 C.ar  200  HBX200      0.0422
      4  C2        20.2290   30.1650   32.6840 C.ar  200  HBX200      0.0033
      5  C3        21.5780   30.4890   32.7550 C.ar  200  HBX200      0.0001
      6  C4        22.0580   31.5980   32.0750 C.ar  200  HBX200      0.0000
      7  C5        21.2050   32.3960   31.3210 C.ar  200  HBX200      0.0001
      8  C6        19.8580   32.0780   31.2490 C.ar  200  HBX200      0.0033
@<TRIPOS>BOND
     1     2     1    2
     2     8     7   ar
     3     8     3   ar
     4     7     6   ar
     5     1     3    1
     6     3     4   ar
     7     6     5   ar
     8     4     5   ar
