@<TRIPOS>MOLECULE
IPA.pdb
 4 3 0 0 0
SMALL
GASTEIGER

@<TRIPOS>ATOM
      1  C1        37.8150   44.4210   -1.8710 C.3  2001  IPA2001     0.0355
      2  C2        36.6600   43.4330   -2.0970 C.3  2001  IPA2001     0.1522
      3  C3        36.9960   42.0520   -1.5270 C.3  2001  IPA2001     0.0355
      4  O2        36.3780   43.2680   -3.4740 O.3  2001  IPA2001    -0.2231
@<TRIPOS>BOND
     1     4     2    1
     2     2     1    1
     3     2     3    1
