@<TRIPOS>MOLECULE
IPH.pdb
 7 7 0 0 0
SMALL
GASTEIGER

@<TRIPOS>ATOM
      1  C1         6.3900   22.3540   50.4180 C.ar  901  IPH901      0.1957
      2  C2         6.4980   21.7140   51.6430 C.ar  901  IPH901      0.0420
      3  C3         5.3670   21.5400   52.4390 C.ar  901  IPH901      0.0033
      4  C4         4.1350   22.0270   52.0120 C.ar  901  IPH901      0.0002
      5  C5         4.0260   22.6780   50.7860 C.ar  901  IPH901      0.0033
      6  C6         5.1590   22.8300   49.9940 C.ar  901  IPH901      0.0420
      7  O1         7.4980   22.5050   49.6340 O.3   901  IPH901     -0.2866
@<TRIPOS>BOND
     1     7     1    1
     2     6     1   ar
     3     6     5   ar
     4     1     2   ar
     5     5     4   ar
     6     2     3   ar
     7     4     3   ar
