@<TRIPOS>MOLECULE
ISB.pdb
 5 4 0 0 0
SMALL
GASTEIGER

@<TRIPOS>ATOM
      1  O1         1.0720    0.2060    0.0000 O.2     1  UNK1       -0.2835
      2  C1         0.3570   -0.2060    0.0000 C.2     1  UNK1        0.2299
      3  C2        -0.3570    0.2060   -0.0000 C.2     1  UNK1        0.0203
      4  C3        -1.0720   -0.2060   -0.0000 C.3     1  UNK1        0.0345
      5  C4        -0.3570    1.0310    0.0000 C.2     1  UNK1       -0.0012
@<TRIPOS>BOND
     1     1     2    2
     2     2     3    1
     3     3     4    1
     4     3     5    2
