@<TRIPOS>MOLECULE
URE.pdb
 4 3 0 0 0
SMALL
GASTEIGER

@<TRIPOS>ATOM
      1  C        -14.1500   16.3650    7.9480 C.2   505  URE505      0.3786
      2  O        -15.1350   16.5280    7.2320 O.2   505  URE505     -0.2457
      3  N1       -13.2980   17.3610    8.2030 N.am  505  URE505     -0.0665
      4  N2       -13.8820   15.1750    8.4890 N.am  505  URE505     -0.0665
@<TRIPOS>BOND
     1     2     1    2
     2     1     3   am
     3     1     4   am
