@<TRIPOS>MOLECULE
2F2.pdb
 3 2 0 0 0
SMALL
GASTEIGER

@<TRIPOS>ATOM
      1  C1        41.5780   -2.5020  -31.8240 C.3   509  2F2509      0.1742
      2  O         42.3840   -3.6240  -31.4300 O.3   509  2F2509     -0.3484
      3  C         43.0840   -4.3890  -32.4230 C.3   509  2F2509      0.1742
@<TRIPOS>BOND
     1     3     2    1
     2     1     2    1
