@<TRIPOS>MOLECULE
ACE.pdb
 3 2 0 0 0
SMALL
GASTEIGER

@<TRIPOS>ATOM
      1  C         10.3350   12.9590   40.7590 C.2     0  ACE0        0.2078
      2  O         10.2570   14.1800   40.8770 O.2     0  ACE0       -0.2883
      3  CH3        9.8460   12.0000   41.8040 C.3     0  ACE0        0.0804
@<TRIPOS>BOND
     1     1     2    2
     2     1     3    1
