@<TRIPOS>MOLECULE
ACN.pdb
 4 3 0 0 0
SMALL
GASTEIGER

@<TRIPOS>ATOM
      1  C         51.3700   45.3550  120.6150 C.2   259  ACN259      0.1515
      2  O         50.2870   45.2090  121.2100 O.2   259  ACN259     -0.2960
      3  C1        51.4740   45.1550  119.1100 C.3   259  ACN259      0.0723
      4  C2        52.6920   45.6840  121.3290 C.3   259  ACN259      0.0723
@<TRIPOS>BOND
     1     3     1    1
     2     1     2    2
     3     1     4    1
