@<TRIPOS>MOLECULE
CCN.pdb
 3 2 0 0 0
SMALL
GASTEIGER

@<TRIPOS>ATOM
      1  N         54.0060  -76.5120    9.7480 N.1  1283  CCN1283    -0.1958
      2  C1        54.7440  -76.3450   10.6070 C.1  1283  CCN1283     0.0743
      3  C2        55.7290  -76.1150   11.7350 C.3  1283  CCN1283     0.1215
@<TRIPOS>BOND
     1     1     2    3
     2     2     3    1
