@<TRIPOS>MOLECULE
CHX.pdb
 6 6 0 0 0
SMALL
GASTEIGER

@<TRIPOS>ATOM
      1  C1        32.6320   19.4190   19.2310 C.3   182  CHX182      0.0000
      2  C2        32.7810   20.2350   17.9440 C.3   182  CHX182      0.0000
      3  C3        31.4710   20.2750   17.1470 C.3   182  CHX182      0.0000
      4  C4        30.3750   21.0270   17.9120 C.3   182  CHX182      0.0000
      5  C5        30.4950   20.8700   19.4400 C.3   182  CHX182      0.0000
      6  C6        31.2490   19.6030   19.8880 C.3   182  CHX182      0.0000
@<TRIPOS>BOND
     1     3     4    1
     2     3     2    1
     3     4     5    1
     4     2     1    1
     5     1     6    1
     6     5     6    1
