@<TRIPOS>MOLECULE
DMF.pdb
 5 4 0 0 0
SMALL
GASTEIGER

@<TRIPOS>ATOM
      1  C1        52.6770   39.2360   81.9210 C.3   800  DMF800      0.1154
      2  C2        50.4550   39.3830   80.8380 C.3   800  DMF800      0.1154
      3  C         51.6120   41.4480   81.2950 C.2   800  DMF800      0.3030
      4  O         52.5190   42.1020   81.7240 O.2   800  DMF800     -0.2649
      5  N         51.6030   40.0390   81.3700 N.am  800  DMF800     -0.2688
@<TRIPOS>BOND
     1     2     5    1
     2     3     5   am
     3     3     4    2
     4     5     1    1
