@<TRIPOS>MOLECULE
EOH.pdb
 3 2 0 0 0
SMALL
GASTEIGER

@<TRIPOS>ATOM
      1  C1        33.5680  117.7700   -5.4000 C.3  1203  EOH1203     0.1822
      2  C2        34.9760  117.7760   -6.0500 C.3  1203  EOH1203     0.0382
      3  O         33.7110  118.2580   -4.0750 O.3  1203  EOH1203    -0.2204
@<TRIPOS>BOND
     1     2     1    1
     2     1     3    1
